4
Coordinates from ORCA-job NH E -56.332894550954
  N       0.793350      0.146620     -0.143660
  H       1.627920     -0.343530     -0.533200
  H       0.783490      1.122030     -0.513770
  H       0.893460      0.190550      0.893910
4
Coordinates from ORCA-job NH E -56.335168342837
  N       0.782892      0.140532     -0.146872
  H       1.609822     -0.314205     -0.512381
  H       0.800038      1.091184     -0.493515
  H       0.905469      0.198159      0.856048
4
Coordinates from ORCA-job NH E -56.335307973416
  N       0.776654      0.137019     -0.148710
  H       1.612517     -0.313790     -0.512316
  H       0.801735      1.093356     -0.493570
  H       0.907313      0.199085      0.857876
4
Coordinates from ORCA-job NH E -56.335366484100
  N       0.767773      0.132016     -0.151326
  H       1.613617     -0.309732     -0.509716
  H       0.805810      1.092264     -0.491198
  H       0.911019      0.201121      0.855521
4
Coordinates from ORCA-job NH E -56.335368485670
  N       0.766354      0.131197     -0.151757
  H       1.613456     -0.308658     -0.508993
  H       0.806668      1.091564     -0.490479
  H       0.911742      0.201566      0.854509
4
Coordinates from ORCA-job NH E -56.335368541207
  N       0.766359      0.131187     -0.151764
  H       1.613398     -0.308590     -0.508944
  H       0.806702      1.091472     -0.490404
  H       0.911760      0.201601      0.854393
